Version 4
SHEET 1 1368 1028
WIRE 224 432 96 432
WIRE 368 432 224 432
WIRE 224 496 224 432
FLAG 880 272 0
FLAG 880 192 vdd
FLAG 896 480 0
FLAG 896 672 0
FLAG 96 384 0
FLAG 368 384 0
FLAG 96 336 vdd
FLAG 368 336 vdd
FLAG 896 400 inp
FLAG 896 592 inn
FLAG 224 576 0
FLAG 48 416 inp
FLAG 320 416 inn
SYMBOL voltage 880 176 R0
WINDOW 123 0 0 Left 0
WINDOW 39 0 0 Left 0
SYMATTR InstName V1
SYMATTR Value 3.3
SYMBOL nmos4 48 336 R0
SYMATTR InstName M1
SYMATTR Value2 l=0.35u w=1u
SYMBOL nmos4 320 336 R0
SYMATTR InstName M2
SYMATTR Value2 l=0.35u w=5u
SYMBOL voltage 896 384 R0
WINDOW 123 0 0 Left 0
WINDOW 39 0 0 Left 0
SYMATTR InstName V2
SYMATTR Value PULSE(0.65 3 1n 20n 20n 20n 20n)
SYMBOL voltage 896 576 R0
WINDOW 123 0 0 Left 0
WINDOW 39 0 0 Left 0
SYMATTR InstName V3
SYMATTR Value PULSE(2.65 0.65 1n 20n 20n 20n 20n)
SYMBOL current 224 496 R0
WINDOW 123 0 0 Left 0
WINDOW 39 0 0 Left 0
SYMATTR InstName I1
SYMATTR Value 10µ
TEXT -136 -128 Left 2 !.inc library.mod
TEXT 168 -72 Left 2 !.tran 22n
