Version 4
SHEET 1 880 680
WIRE 48 112 -48 112
WIRE 272 112 48 112
WIRE 48 272 48 112
WIRE 224 288 224 192
FLAG 272 160 0
FLAG 272 208 0
FLAG -48 192 0
FLAG 48 352 0
FLAG 224 368 0
SYMBOL res -64 96 R0
SYMATTR InstName R1
SYMATTR Value 10k
SYMBOL voltage 224 272 R0
WINDOW 123 0 0 Left 0
WINDOW 39 0 0 Left 0
SYMATTR InstName V1
SYMATTR Value 3.3
SYMBOL voltage 48 256 R0
SYMATTR InstName V2
SYMATTR Value ""
SYMBOL nmos4 224 112 R0
SYMATTR InstName M1
SYMATTR Value2 l=0.4u w=0.4u
TEXT 16 48 Left 2 !.inc library.mod
TEXT 248 64 Left 2 !.dc V2 0 3.3 0.1
