Version 4
SHEET 1 880 680
WIRE 48 160 48 128
WIRE 48 272 48 240
WIRE 48 272 -48 272
WIRE 48 304 48 272
WIRE 0 384 -96 384
WIRE -96 400 -96 384
FLAG -48 272 OUT
IOPIN -48 272 Out
FLAG -96 480 0
FLAG 48 352 vdd
FLAG 48 400 vdd
FLAG 48 128 0
FLAG 208 384 0
FLAG 208 304 vdd
SYMBOL res 32 144 R0
SYMATTR InstName R1
SYMATTR Value 50k
SYMBOL voltage -96 384 R0
WINDOW 123 0 0 Left 0
WINDOW 39 0 0 Left 0
SYMATTR InstName V1
SYMATTR Value PULSE(0 3.3 1n 1n 1n 1u 2u)
SYMBOL pmos4 0 304 R0
SYMATTR InstName M2
SYMATTR Value2 l=0.35u w=4u
SYMBOL voltage 208 288 R0
WINDOW 123 0 0 Left 0
WINDOW 39 0 0 Left 0
SYMATTR InstName V2
SYMATTR Value 3.3
TEXT 80 80 Left 2 !.inc library.mod
TEXT -136 544 Left 2 !.tran 10u
